Version 4
SHEET 1 1240 680
WIRE 96 144 -32 144
WIRE 208 144 176 144
WIRE -32 160 -32 144
WIRE 208 240 208 144
WIRE 304 240 208 240
WIRE 480 240 432 240
WIRE 544 240 480 240
WIRE 736 240 624 240
WIRE 304 272 144 272
WIRE 736 272 736 240
WIRE 816 272 736 272
WIRE 304 304 272 304
WIRE 576 304 432 304
WIRE 736 304 736 272
WIRE 736 304 576 304
WIRE 144 336 144 272
WIRE 816 352 736 352
WIRE 832 352 816 352
WIRE 736 368 736 352
WIRE 480 384 480 240
WIRE 576 384 576 304
WIRE 864 432 800 432
WIRE 272 448 272 304
WIRE 480 448 272 448
WIRE 576 448 480 448
WIRE 736 448 576 448
WIRE 800 448 800 432
WIRE 800 448 736 448
FLAG -32 240 0
FLAG 864 512 0
FLAG 144 416 0
SYMBOL Optos/4N25 848 80 R0
SYMATTR InstName U1
SYMBOL res 192 128 R90
WINDOW 0 0 56 VBottom 2
WINDOW 3 32 56 VTop 2
SYMATTR InstName R1
SYMATTR Value 3.3K
SYMBOL voltage 736 352 R0
SYMATTR InstName V1
SYMATTR Value 3.3
SYMBOL voltage 144 320 R0
WINDOW 3 24 96 Invisible 2
SYMATTR Value PULSE(0 3 0.001 0 0 0.000102 0.000204)
SYMATTR InstName V2
SYMATTR SpiceLine Rser=100
SYMBOL Res 640 224 R90
WINDOW 0 0 56 VBottom 2
WINDOW 3 32 56 VTop 2
SYMATTR InstName R6
SYMATTR Value 10K
SYMBOL Optos/4N28 1136 320 R0
SYMATTR InstName U2
SYMBOL AutoGenerated/BJT_10mA 1056 64 R0
SYMATTR InstName U3
SYMBOL cap 496 448 R180
WINDOW 0 24 56 Left 2
WINDOW 3 24 8 Left 2
SYMATTR InstName C1
SYMATTR Value 15p
SYMBOL cap 592 448 R180
WINDOW 0 24 56 Left 2
WINDOW 3 24 8 Left 2
SYMATTR InstName C2
SYMATTR Value 0.1µ
SYMBOL voltage 864 416 R0
SYMATTR InstName V3
SYMATTR Value SINE(0 0 200)
SYMBOL voltage 816 256 R0
SYMATTR InstName V4
SYMATTR Value SINE(0 0 147000)
SYMBOL voltage -32 144 R0
SYMATTR InstName V5
SYMATTR Value SINE(3 0 200)
SYMBOL AutoGenerated/6N137 368 272 R0
SYMATTR InstName U4
TEXT 864 192 Left 2 !.tran 2m startup
